Version 4
SHEET 1 2288 868
WIRE 1200 -208 1152 -208
WIRE 1328 -208 1280 -208
WIRE 1152 -64 1152 -208
WIRE 1152 -64 1088 -64
WIRE 1328 -64 1328 -208
WIRE 1328 -64 1152 -64
WIRE 1328 48 1328 16
WIRE 1360 144 1184 144
WIRE 1840 144 1616 144
WIRE 1184 176 1184 144
WIRE 1920 176 1728 176
WIRE 1920 192 1920 176
WIRE 1328 208 1328 112
WIRE 1360 208 1328 208
WIRE 1728 208 1728 176
WIRE 1728 208 1616 208
WIRE 1184 272 1184 256
WIRE 1360 272 1184 272
WIRE 1920 272 1616 272
WIRE 1184 288 1184 272
WIRE 1360 336 1280 336
WIRE 1712 336 1616 336
WIRE 1088 448 1088 -64
WIRE 1184 448 1088 448
WIRE 1184 480 1184 448
WIRE 1280 496 1280 336
WIRE 1456 496 1280 496
WIRE 1712 496 1712 336
WIRE 1712 496 1536 496
WIRE 1184 592 1184 560
WIRE 1840 592 1840 144
WIRE 1840 592 1184 592
WIRE 1088 704 1088 448
WIRE 1488 704 1088 704
WIRE 1920 704 1920 272
WIRE 1920 704 1488 704
FLAG 1488 704 0
SYMBOL voltage 1920 176 R0
WINDOW 123 0 0 Left 0
WINDOW 39 0 0 Left 0
SYMATTR InstName V1
SYMATTR Value SINE(0 600mv 300)
SYMBOL voltage 1184 352 R0
WINDOW 123 0 0 Left 0
WINDOW 39 0 0 Left 0
SYMATTR InstName V2
SYMATTR Value 5
SYMBOL voltage 1184 464 R0
WINDOW 123 0 0 Left 0
WINDOW 39 0 0 Left 0
SYMATTR InstName V3
SYMATTR Value 5
SYMBOL OpAmps\\LT1167 1488 240 R180
SYMATTR InstName U1
SYMBOL res 1552 480 R90
WINDOW 0 0 56 VBottom 2
WINDOW 3 32 56 VTop 2
SYMATTR InstName R2
SYMATTR Value 50k
SYMBOL res 1168 160 R0
SYMATTR InstName R3
SYMATTR Value 20k
SYMBOL res 1344 32 R180
WINDOW 0 36 76 Left 2
WINDOW 3 36 40 Left 2
SYMATTR InstName R1
SYMATTR Value 1k
SYMBOL res 1168 272 R0
SYMATTR InstName R5
SYMATTR Value 10
SYMBOL diode 1344 112 R180
WINDOW 0 24 64 Left 2
WINDOW 3 24 0 Left 2
SYMATTR InstName D1
TEXT 2000 376 Left 2 !.tran 0.01s
